<?xml version="1.0" encoding="utf-8"?>
<FrameLayout
    xmlns:android="http://schemas.android.com/apk/res/android"
    xmlns:app="http://schemas.android.com/apk/res-auto"
    xmlns:osmand="http://schemas.android.com/apk/res-auto"
    xmlns:tools="http://schemas.android.com/tools"
    android:layout_width="match_parent"
    android:layout_height="match_parent"
    android:background="@color/color_transparent"
    android:clickable="true">

    <LinearLayout
        android:id="@+id/main_view"
        android:layout_width="match_parent"
        android:layout_height="wrap_content"
        android:layout_gravity="bottom"
        android:clickable="true"
        android:orientation="vertical">

        <ImageView
            android:id="@+id/plan_route_shadow"
            android:layout_width="match_parent"
            android:layout_height="wrap_content"
            android:scaleType="fitXY"
            android:src="@drawable/bg_shadow_onmap"/>

        <LinearLayout
            android:id="@+id/background_view"
            android:layout_width="match_parent"
            android:layout_height="match_parent"
            android:orientation="vertical"
            tools:background="@color/bg_color_dark">

            <android.support.v7.widget.Toolbar
                android:id="@+id/plan_route_toolbar"
                android:layout_width="match_parent"
                android:layout_height="@dimen/dashboard_map_toolbar"
                android:background="?attr/bg_color"
                android:minHeight="@dimen/dashboard_map_toolbar"
                android:visibility="gone"
                app:contentInsetLeft="54dp"
                app:contentInsetStart="54dp"
                tools:visibility="visible">

                <LinearLayout
                    android:layout_width="match_parent"
                    android:layout_height="match_parent"
                    android:orientation="vertical">

                    <LinearLayout
                        android:layout_width="match_parent"
                        android:layout_height="match_parent"
                        android:gravity="center_vertical"
                        android:orientation="horizontal">

                        <net.osmand.plus.widgets.TextViewEx
                            android:layout_width="0dp"
                            android:layout_height="match_parent"
                            android:layout_weight="1"
                            android:ellipsize="end"
                            android:gravity="center_vertical"
                            android:maxLines="1"
                            android:text="@string/plan_route"
                            android:textColor="?android:textColorSecondary"
                            android:textSize="@dimen/dialog_header_text_size"
                            osmand:typeface="@string/font_roboto_medium"/>

                        <net.osmand.plus.widgets.TextViewEx
                            android:id="@+id/options_button"
                            android:layout_width="wrap_content"
                            android:layout_height="match_parent"
                            android:background="?attr/selectableItemBackground"
                            android:ellipsize="end"
                            android:gravity="center_vertical"
                            android:maxLines="1"
                            android:paddingLeft="16dp"
                            android:paddingRight="16dp"
                            android:text="@string/shared_string_options"
                            android:textAllCaps="true"
                            android:textColor="?attr/color_dialog_buttons"
                            android:textSize="@dimen/default_list_text_size"
                            osmand:typeface="@string/font_roboto_medium"/>
                    </LinearLayout>

                    <View
                        android:id="@+id/toolbar_divider"
                        android:layout_width="wrap_content"
                        android:layout_height="1dp"
                        tools:background="?attr/dashboard_divider"/>
                </LinearLayout>

            </android.support.v7.widget.Toolbar>

            <ProgressBar
                android:id="@+id/snap_to_road_progress_bar"
                style="?android:attr/progressBarStyleHorizontal"
                android:layout_width="match_parent"
                android:layout_height="wrap_content"
                android:minHeight="0dp"
                android:visibility="gone"
                tools:visibility="visible"/>

            <LinearLayout
                android:id="@+id/up_down_row"
                android:layout_width="match_parent"
                android:layout_height="@dimen/measurement_tool_up_down_row_height"
                android:background="?attr/selectableItemBackground">

                <ImageView
                    android:id="@+id/up_down_icon"
                    android:layout_width="wrap_content"
                    android:layout_height="wrap_content"
                    android:layout_gravity="center_vertical"
                    android:layout_marginEnd="@dimen/bottom_sheet_content_margin"
                    android:layout_marginLeft="@dimen/bottom_sheet_content_margin"
                    android:layout_marginRight="@dimen/bottom_sheet_content_margin"
                    android:layout_marginStart="@dimen/bottom_sheet_content_margin"
                    android:background="@null"
                    tools:src="@drawable/ic_action_arrow_down"/>

                <LinearLayout
                    android:layout_width="0dp"
                    android:layout_height="wrap_content"
                    android:layout_gravity="center_vertical"
                    android:layout_weight="1"
                    android:orientation="vertical">

                    <LinearLayout
                        android:layout_width="match_parent"
                        android:layout_height="match_parent">

                        <TextView
                            android:id="@+id/markers_distance_text_view"
                            android:layout_width="wrap_content"
                            android:layout_height="wrap_content"
                            android:layout_gravity="center_vertical"
                            android:layout_marginEnd="@dimen/measurement_tool_text_margin_small"
                            android:layout_marginLeft="@dimen/measurement_tool_text_margin"
                            android:layout_marginRight="@dimen/measurement_tool_text_margin_small"
                            android:layout_marginStart="@dimen/measurement_tool_text_margin"
                            android:ellipsize="end"
                            android:maxLines="1"
                            android:textAppearance="@style/TextAppearance.ListItemTitle"
                            tools:text="1.39 km,"/>

                        <TextView
                            android:id="@+id/markers_time_text_view"
                            android:layout_width="wrap_content"
                            android:layout_height="wrap_content"
                            android:layout_gravity="center_vertical"
                            android:ellipsize="end"
                            android:maxLines="1"
                            android:textColor="?android:textColorSecondary"
                            android:textSize="@dimen/default_list_text_size"
                            tools:text="~ 45 min."/>
                    </LinearLayout>

                    <TextView
                        android:id="@+id/markers_count_text_view"
                        android:layout_width="wrap_content"
                        android:layout_height="wrap_content"
                        android:layout_gravity="center_vertical"
                        android:layout_marginLeft="@dimen/measurement_tool_text_margin"
                        android:layout_marginStart="@dimen/measurement_tool_text_margin"
                        android:ellipsize="end"
                        android:maxLines="1"
                        android:textColor="?android:textColorSecondary"
                        android:textSize="@dimen/default_sub_text_size"
                        tools:text="3 markers"/>
                </LinearLayout>

                <net.osmand.plus.widgets.TextViewEx
                    android:id="@+id/select_all_button"
                    android:layout_width="wrap_content"
                    android:layout_height="match_parent"
                    android:background="?attr/selectableItemBackground"
                    android:ellipsize="end"
                    android:gravity="center_vertical"
                    android:maxLines="1"
                    android:paddingEnd="@dimen/measurement_tool_text_button_padding_small"
                    android:paddingLeft="@dimen/measurement_tool_text_button_padding"
                    android:paddingRight="@dimen/measurement_tool_text_button_padding_small"
                    android:paddingStart="@dimen/measurement_tool_text_button_padding"
                    android:text="@string/shared_string_select_all"
                    android:textColor="?attr/color_dialog_buttons"
                    osmand:textAllCapsCompat="true"
                    osmand:typeface="@string/font_roboto_medium"/>
            </LinearLayout>

            <FrameLayout
                android:id="@+id/markers_list_container"
                android:layout_width="match_parent"
                android:layout_height="@dimen/measurement_tool_points_list_container_height"
                android:background="@color/ctx_menu_info_view_bg_dark">

                <android.support.v7.widget.RecyclerView
                    android:id="@+id/markers_recycler_view"
                    android:layout_width="match_parent"
                    android:layout_height="match_parent"/>

                <include layout="@layout/card_bottom_divider"/>
            </FrameLayout>

        </LinearLayout>

    </LinearLayout>

</FrameLayout>
