<?xml version="1.0" encoding="utf-8"?>
<LinearLayout xmlns:android="http://schemas.android.com/apk/res/android"
	xmlns:app="http://schemas.android.com/apk/res-auto"
	android:layout_width="match_parent"
	android:layout_height="match_parent"
	android:orientation="vertical">

	<androidx.appcompat.widget.AppCompatImageView
		android:id="@+id/shadow_on_map"
		android:layout_width="match_parent"
		android:layout_height="wrap_content"
		android:scaleType="fitXY"
		app:srcCompat="@drawable/bg_shadow_onmap" />

	<LinearLayout
		android:layout_width="match_parent"
		android:layout_height="match_parent"
		android:background="?attr/activity_background_color"
		android:orientation="vertical">

		<FrameLayout
			android:layout_width="match_parent"
			android:layout_height="wrap_content"
			android:background="?attr/list_background_color">

			<include
				android:id="@+id/main_toggle"
				layout="@layout/bottom_sheet_item_with_switch_56dp" />

		</FrameLayout>

		<!--Normal screen, when public nautical depth contours enabled-->
		<LinearLayout
			android:id="@+id/normal_screen"
			android:layout_width="match_parent"
			android:layout_height="wrap_content"
			android:orientation="vertical">

			<include layout="@layout/list_item_divider" />

			<LinearLayout
				android:id="@+id/properties_container"
				android:layout_width="match_parent"
				android:layout_height="wrap_content"
				android:background="?attr/list_background_color"
				android:orientation="vertical">

				<net.osmand.plus.widgets.TextViewEx
					style="@style/TitleStyle.Medium"
					android:layout_width="match_parent"
					android:layout_height="wrap_content"
					android:layout_marginHorizontal="@dimen/content_padding"
					android:layout_marginVertical="@dimen/content_padding_small"
					android:text="@string/mtb_segment_classification"
					android:textColor="?android:textColorPrimary" />

				<LinearLayout
					android:id="@+id/classification_properties"
					android:layout_width="match_parent"
					android:layout_height="wrap_content"
					android:orientation="vertical">

				</LinearLayout>

			</LinearLayout>

			<include
				android:id="@+id/bottom_divider"
				layout="@layout/card_bottom_divider" />

			<View
				android:id="@+id/bottom_empty_space"
				android:layout_width="match_parent"
				android:layout_height="0dp"
				android:layout_weight="1"
				android:focusable="false"
				android:minHeight="@dimen/toolbar_height" />

		</LinearLayout>

	</LinearLayout>

</LinearLayout>